THERMO ALL
   200.000  1000.000  6000.000
N2 REF ELEMENT    G 8/02N  2.   0.   0.   0.G   200.000  6000.000 1000.        1
 2.95257637E+00 1.39690040E-03-4.92631603E-07 7.86010195E-11-4.60755204E-15    2
-9.23948688E+02 5.87188762E+00 3.53100528E+00-1.23660988E-04-5.02999433E-07    3
 2.43530612E-09-1.40881235E-12-1.04697628E+03 2.96747038E+00 0.00000000E+00    4
N2(v1)            G 8/02N  2.   0.   0.   0.G   200.000  6000.000 1000.        1
 2.95257637E+00 1.39690040E-03-4.92631603E-07 7.86010195E-11-4.60755204E-15 　 2
 2.42859660E+03 5.87188762E+00 0.00000000E+00-1.23660988E-04-5.02999433E-07 　 3
 2.43530612E-09-1.40881235E-12 1.38162032E+03 2.96747038E+00 0.00000000E+00 　 4
N2(v2)            G 8/02N  2.   0.   0.   0.G   200.000  6000.000 1000.        1
 2.95257637E+00 1.39690040E-03-4.92631603E-07 7.86010195E-11-4.60755204E-15 　 2
 1.40331147E+04 5.87188762E+00 3.53100528E+00-1.23660988E-04-5.02999433E-07 　 3
 2.43530612E-09-1.40881235E-12 1.29861384E+04 2.96747038E+00 0.00000000E+00 　 4
N2(v3)            G 8/02N  2.   0.   0.   0.G   200.000  6000.000 1000.        1
 2.95257637E+00 1.39690040E-03-4.92631603E-07 7.86010195E-11-4.60755204E-15 　 2
 2.56376328E+04 5.87188762E+00 3.53100528E+00-1.23660988E-04-5.02999433E-07 　 3
 2.43530612E-09-1.40881235E-12 2.45906566E+04 2.96747038E+00 0.00000000E+00 　 4
N2(v4)            G 8/02N  2.   0.   0.   0.G   200.000  6000.000 1000.        1
 2.95257637E+00 1.39690040E-03-4.92631603E-07 7.86010195E-11-4.60755204E-15 　 2
 3.72421510E+04 5.87188762E+00 3.53100528E+00-1.23660988E-04-5.02999433E-07 　 3
 2.43530612E-09-1.40881235E-12 3.61951747E+04 2.96747038E+00 0.00000000E+00 　 4
N2(v5)            G 8/02N  2.   0.   0.   0.G   200.000  6000.000 1000.        1
 2.95257637E+00 1.39690040E-03-4.92631603E-07 7.86010195E-11-4.60755204E-15 　 2
 4.88466691E+04 5.87188762E+00 3.53100528E+00-1.23660988E-04-5.02999433E-07 　 3
 2.43530612E-09-1.40881235E-12 4.77996928E+04 2.96747038E+00 0.00000000E+00 　 4
N2(v6)            G 8/02N  2.   0.   0.   0.G   200.000  6000.000 1000.        1
 2.95257637E+00 1.39690040E-03-4.92631603E-07 7.86010195E-11-4.60755204E-15 　 2
 6.04511872E+04 5.87188762E+00 3.53100528E+00-1.23660988E-04-5.02999433E-07 　 3
 2.43530612E-09-1.40881235E-12 5.94042109E+04 2.96747038E+00 0.00000000E+00 　 4
N2(v7)            G 8/02N  2.   0.   0.   0.G   200.000  6000.000 1000.        1
 2.95257637E+00 1.39690040E-03-4.92631603E-07 7.86010195E-11-4.60755204E-15 　 2
 7.20557053E+04 5.87188762E+00 3.53100528E+00-1.23660988E-04-5.02999433E-07 　 3
 2.43530612E-09-1.40881235E-12 7.10087290E+04 2.96747038E+00 0.00000000E+00 　 4
N2(v8)            G 8/02N  2.   0.   0.   0.G   200.000  6000.000 1000.        1
 2.95257637E+00 1.39690040E-03-4.92631603E-07 7.86010195E-11-4.60755204E-15 　 2
 8.36602234E+04 5.87188762E+00 3.53100528E+00-1.23660988E-04-5.02999433E-07 　 3
 2.43530612E-09-1.40881235E-12 8.26132472E+04 2.96747038E+00 0.00000000E+00 　 4
N2(v9)            G 8/02N  2.   0.   0.   0.G   200.000  6000.000 1000.        1
 2.95257637E+00 1.39690040E-03-4.92631603E-07 7.86010195E-11-4.60755204E-15 　 2
 9.52647416E+04 5.87188762E+00 3.53100528E+00-1.23660988E-04-5.02999433E-07 　 3
 2.43530612E-09-1.40881235E-12 9.42177653E+04 2.96747038E+00 0.00000000E+00 　 4
N2(v10)           G 8/02N  2.   0.   0.   0.G   200.000  6000.000 1000.        1
 2.95257637E+00 1.39690040E-03-4.92631603E-07 7.86010195E-11-4.60755204E-15 　 2
 1.06869260E+05 5.87188762E+00 3.53100528E+00-1.23660988E-04-5.02999433E-07 　 3
 2.43530612E-09-1.40881235E-12 1.05822283E+05 2.96747038E+00 0.00000000E+00 　 4
N2(v11)           G 8/02N  2.   0.   0.   0.G   200.000  6000.000 1000.        1
 2.95257637E+00 1.39690040E-03-4.92631603E-07 7.86010195E-11-4.60755204E-15 　 2
 1.18473778E+05 5.87188762E+00 3.53100528E+00-1.23660988E-04-5.02999433E-07 　 3
 2.43530612E-09-1.40881235E-12 1.17426802E+05 2.96747038E+00 0.00000000E+00 　 4
N2(v12)           G 8/02N  2.   0.   0.   0.G   200.000  6000.000 1000.        1
 2.95257637E+00 1.39690040E-03-4.92631603E-07 7.86010195E-11-4.60755204E-15 　 2
 1.30078296E+05 5.87188762E+00 3.53100528E+00-1.23660988E-04-5.02999433E-07 　 3
 2.43530612E-09-1.40881235E-12 1.29031320E+05 2.96747038E+00 0.00000000E+00 　 4
N2(v13)           G 8/02N  2.   0.   0.   0.G   200.000  6000.000 1000.        1
 2.95257637E+00 1.39690040E-03-4.92631603E-07 7.86010195E-11-4.60755204E-15 　 2
 1.41682814E+05 5.87188762E+00 3.53100528E+00-1.23660988E-04-5.02999433E-07 　 3
 2.43530612E-09-1.40881235E-12 1.40635838E+05 2.96747038E+00 0.00000000E+00 　 4
N2(v14)           G 8/02N  2.   0.   0.   0.G   200.000  6000.000 1000.        1
 2.95257637E+00 1.39690040E-03-4.92631603E-07 7.86010195E-11-4.60755204E-15 　 2
 1.53287332E+05 5.87188762E+00 3.53100528E+00-1.23660988E-04-5.02999433E-07 　 3
 2.43530612E-09-1.40881235E-12 1.52240356E+05 2.96747038E+00 0.00000000E+00 　 4
N2(v15)           G 8/02N  2.   0.   0.   0.G   200.000  6000.000 1000.        1
 2.95257637E+00 1.39690040E-03-4.92631603E-07 7.86010195E-11-4.60755204E-15 　 2
 1.64891850E+05 5.87188762E+00 3.53100528E+00-1.23660988E-04-5.02999433E-07 　 3
 2.43530612E-09-1.40881235E-12 1.63844874E+05 2.96747038E+00 0.00000000E+00 　 4
N2(A3)            G 8/02N  2.   0.   0.   0.G   200.000  6000.000 1000.        1
 2.95257637E+00 1.39690040E-03-4.92631603E-07 7.86010195E-11-4.60755204E-15 　 2
 1.76496368E+05 5.87188762E+00 3.53100528E+00-1.23660988E-04-5.02999433E-07 　 3
 2.43530612E-09-1.40881235E-12 1.75449392E+05 2.96747038E+00 0.00000000E+00 　 4
N2(B3)            G 8/02N  2.   0.   0.   0.G   200.000  6000.000 1000.        1
 2.95257637E+00 1.39690040E-03-4.92631603E-07 7.86010195E-11-4.60755204E-15 　 2
 1.88100887E+05 5.87188762E+00 3.53100528E+00-1.23660988E-04-5.02999433E-07 　 3
 2.43530612E-09-1.40881235E-12 1.87053910E+05 2.96747038E+00 0.00000000E+00 　 4
N2(a`1)           G 8/02N  2.   0.   0.   0.G   200.000  6000.000 1000.        1
 2.95257637E+00 1.39690040E-03-4.92631603E-07 7.86010195E-11-4.60755204E-15 　 2
 1.99705405E+05 5.87188762E+00 3.53100528E+00-1.23660988E-04-5.02999433E-07 　 3
 2.43530612E-09-1.40881235E-12 1.98658428E+05 2.96747038E+00 0.00000000E+00 　 4
N2(B1)            G 8/02N  2.   0.   0.   0.G   200.000  6000.000 1000.        1
 2.95257637E+00 1.39690040E-03-4.92631603E-07 7.86010195E-11-4.60755204E-15 　 2
 2.11309923E+05 5.87188762E+00 3.53100528E+00-1.23660988E-04-5.02999433E-07 　 3
 2.43530612E-09-1.40881235E-12 2.10262947E+05 2.96747038E+00 0.00000000E+00 　 4
N2(b`1)           G 8/02N  2.   0.   0.   0.G   200.000  6000.000 1000.        1
 2.95257637E+00 1.39690040E-03-4.92631603E-07 7.86010195E-11-4.60755204E-15 　 2
 2.22914441E+05 5.87188762E+00 3.53100528E+00-1.23660988E-04-5.02999433E-07 　 3
 2.43530612E-09-1.40881235E-12 2.21867465E+05 2.96747038E+00 0.00000000E+00 　 4
N2(C3)            G 8/02N  2.   0.   0.   0.G   200.000  6000.000 1000.        1
 2.95257637E+00 1.39690040E-03-4.92631603E-07 7.86010195E-11-4.60755204E-15 　 2
 2.34518959E+05 5.87188762E+00 3.53100528E+00-1.23660988E-04-5.02999433E-07 　 3
 2.43530612E-09-1.40881235E-12 2.33471983E+05 2.96747038E+00 0.00000000E+00 　 4
N                 L 6/88N   1    0    0    0G   200.000  6000.000 1000.        1
 0.24159429E+01 0.17489065E-03-0.11902369E-06 0.30226244E-10-0.20360983E-14    2
 0.56133775E+05 0.46496095E+01 0.25000000E+01 0.00000000E+00 0.00000000E+00    3
 0.00000000E+00 0.00000000E+00 0.56104638E+05 0.41939088E+01 0.56850013E+05    4
N(2D)             L 6/88N   1    0    0    0G   200.000  6000.000 1000.        1
 2.41594290E+00 1.74890650E-04-1.19023690E-07 3.02262440E-11-2.03609830E-15 　 2
 8.38801778E+04 4.64960950E+00 2.50000000E+00 0.00000000E+00 0.00000000E+00 　 3
 0.00000000E+00 0.00000000E+00 1.39984816E+05 4.19390880E+00 5.68500130E+04 　 4
N(2P)             L 6/88N   1    0    0    0G   200.000  6000.000 1000.        1
 2.41594290E+00 1.74890650E-04-1.19023690E-07 3.02262440E-11-2.03609830E-15 　 2
 1.83180039E+05 4.64960950E+00 2.50000000E+00 0.00000000E+00 0.00000000E+00 　 3
 0.00000000E+00 0.00000000E+00 2.39284677E+05 4.19390880E+00 5.68500130E+04 　 4
N^+               g 6/97N  1.E -1.   0.   0.G   298.150  6000.000 1000.        1
 2.51210704E+00 1.75367440E-06-1.50557538E-08 7.06834189E-12-6.31861166E-16    2
 2.25597004E+05 4.92236293E+00 2.79781357E+00-1.41287178E-03 2.68686998E-06    3
-2.31615591E-09 7.49585578E-13 2.25548731E+05 3.59928845E+00 2.26339616E+05    4
N2^+              tpis89N  2.E -1.   0.   0.G   298.150  6000.000 1000.        1
 3.58661363E+00 2.53071949E-04 1.84778214E-07-4.55257223E-11 3.26818029E-15    2
 1.80390994E+05 3.09584143E+00 3.77540711E+00-2.06459157E-03 4.75752301E-06    3
-3.15664228E-09 6.70509973E-13 1.80481115E+05 2.69322178E+00 1.81551099E+05    4
N3^+ cation       T 7/11N  3.E -1.   0.   0.G   298.150  6000.000 1000.        1
 5.48199577E+00 2.01665176E-03-7.78258436E-07 1.31617313E-10-8.13320494E-15    2
 1.81240003E+05-6.06985591E+00 3.67011652E+00 4.59806506E-03 1.39108363E-06    3
-5.02694961E-09 2.21155760E-12 1.81883765E+05 3.94467784E+00 1.83185780E+05    4
N4^+ cyclo        T 1/11N  4.E -1.   0.   0.G   298.150  6000.000 1000.        1
 7.05285816E+00 2.91094469E-03-1.11573999E-06 1.87883944E-10-1.15769013E-14    2
 2.14540545E+05-1.12429353E+01 3.32596515E+00 1.43909181E-02-1.56797253E-05    3
 9.52287848E-09-2.53566648E-12 2.15553183E+05 7.82290640E+00 2.17063543E+05    4
O2 singlet        ATcT06O  2.   0.   0.   0.G   200.000  6000.000 1000.        1
 3.45852381E+00 1.04045351E-03-2.79664041E-07 3.11439672E-11-8.55656058E-16    2
 1.02229063E+04 4.15264119E+00 3.78535371E+00-3.21928540E-03 1.12323443E-05    3
-1.17254068E-08 4.17659585E-12 1.02922572E+04 3.27320239E+00 1.13558105E+04    4
O2(v1)            ATcT06O  2.   0.   0.   0.G   200.000  6000.000 1000.        1
 3.45852381E+00 1.04045351E-03-2.79664041E-07 3.11439672E-11-8.55656058E-16 　 2
 2.45665814E+05 4.15264119E+00 3.78535371E+00-3.21928540E-03 1.12323443E-05 　 3
-1.17254068E-08 4.17659585E-12 2.55958071E+05 3.27320239E+00 1.13558105E+04 　 4
O2(v2)            ATcT06O  2.   0.   0.   0.G   200.000  6000.000 1000.        1
 3.45852381E+00 1.04045351E-03-2.79664041E-07 3.11439672E-11-8.55656058E-16 　 2
 2.57270332E+05 4.15264119E+00 3.78535371E+00-3.21928540E-03 1.12323443E-05 　 3
-1.17254068E-08 4.17659585E-12 2.67562589E+05 3.27320239E+00 1.13558105E+04 　 4
O2(v3)            ATcT06O  2.   0.   0.   0.G   200.000  6000.000 1000.        1
 3.45852381E+00 1.04045351E-03-2.79664041E-07 3.11439672E-11-8.55656058E-16 　 2
 2.68874850E+05 4.15264119E+00 3.78535371E+00-3.21928540E-03 1.12323443E-05 　 3
-1.17254068E-08 4.17659585E-12 2.79167107E+05 3.27320239E+00 1.13558105E+04 　 4
O2(v4)            ATcT06O  2.   0.   0.   0.G   200.000  6000.000 1000.        1
 3.45852381E+00 1.04045351E-03-2.79664041E-07 3.11439672E-11-8.55656058E-16 　 2
 2.80479368E+05 4.15264119E+00 3.78535371E+00-3.21928540E-03 1.12323443E-05 　 3
-1.17254068E-08 4.17659585E-12 2.90771626E+05 3.27320239E+00 1.13558105E+04 　 4
O2(a1)            ATcT06O  2.   0.   0.   0.G   200.000  6000.000 1000.        1
 3.45852381E+00 1.04045351E-03-2.79664041E-07 3.11439672E-11-8.55656058E-16 　 2
 2.92083887E+05 4.15264119E+00 3.78535371E+00-3.21928540E-03 1.12323443E-05 　 3
-1.17254068E-08 4.17659585E-12 3.02376144E+05 3.27320239E+00 1.13558105E+04 　 4
O2(b1)            ATcT06O  2.   0.   0.   0.G   200.000  6000.000 1000.        1
 3.45852381E+00 1.04045351E-03-2.79664041E-07 3.11439672E-11-8.55656058E-16 　 2
 3.03688405E+05 4.15264119E+00 3.78535371E+00-3.21928540E-03 1.12323443E-05 　 3
-1.17254068E-08 4.17659585E-12 3.13980662E+05 3.27320239E+00 1.13558105E+04 　 4
O2(4.5eV)         ATcT06O  2.   0.   0.   0.G   200.000  6000.000 1000.        1
 3.45852381E+00 1.04045351E-03-2.79664041E-07 3.11439672E-11-8.55656058E-16 　 2
 3.15292923E+05 4.15264119E+00 3.78535371E+00-3.21928540E-03 1.12323443E-05 　 3
-1.17254068E-08 4.17659585E-12 3.25585180E+05 3.27320239E+00 1.13558105E+04 　 4
O                 L 1/90O   1    0    0    0G   200.000  6000.000 1000.        1
 2.54363697E+00-2.73162486E-05-4.19029520E-09 4.95481845E-12-4.79553694E-16    2
 2.92260120E+04 4.92229457E+00 3.16826710E+00-3.27931884E-03 6.64306396E-06    3
-6.12806624E-09 2.11265971E-12 2.91222592E+04 2.05193346E+00 2.99687009E+04    4
O(1D)             ATcT AO  1.   0.   0.   0.G   200.000  6000.000 1000.        1
 2.49368475E+00 1.37617903E-05-1.00401058E-08 2.76012182E-12-2.01597513E-16 　 2
 3.57068647E+05 4.65050950E+00 2.49993786E+00 1.71935346E-07-3.45215267E-10 　 3
 3.71342028E-13-1.70964494E-16 4.09065179E+05 4.61684555E+00 5.27418934E+04 　 4 
O(1S)             ATcT AO  1.   0.   0.   0.G   200.000  6000.000 1000.        1
 2.49368475E+00 1.37617903E-05-1.00401058E-08 2.76012182E-12-2.01597513E-16 　 2
 3.68673165E+05 4.65050950E+00 2.49993786E+00 1.71935346E-07-3.45215267E-10 　 3
 3.71342028E-13-1.70964494E-16 4.20669697E+05 4.61684555E+00 5.27418934E+04 　 4
O3                L 5/90O   3    0    0    0G   200.000  6000.000 1000.        1
 1.23302914E+01-1.19324783E-02 7.98741278E-06-1.77194552E-09 1.26075824E-13    2
 1.26755831E+04-4.08823374E+01 3.40738221E+00 2.05379063E-03 1.38486052E-05    3
-2.23311542E-08 9.76073226E-12 1.58644979E+04 8.28247580E+00 1.70545228E+04    4
O^+               g 8/97O  1.E -1.   0.   0.G   298.150  6000.000 1000.        1
 2.48542028E+00 2.56978695E-05-1.28833378E-08 1.65525487E-12 1.09933344E-16    2
 1.87940874E+05 4.47425446E+00 2.50000000E+00 0.00000000E+00 0.00000000E+00    3
 0.00000000E+00 0.00000000E+00 1.87935284E+05 4.39337676E+00 1.88680659E+05    4
O2^+              RUS 89O   2E  -1    0    0G   298.150  6000.000 1000.        1
 3.31675922E+00 1.11522244E-03-3.83492556E-07 5.72784687E-11-2.77648381E-15    2
 1.39876823E+05 5.44726469E+00 4.61017167E+00-6.35951952E-03 1.42425624E-05    3
-1.20997923E-08 3.70956878E-12 1.39742229E+05-2.01326941E-01 1.40937762E+05    4
O3^+              T10/09O  3.E -1.   0.   0.G   298.150  6000.000 1000.        1
 5.79866945E+00 1.23352553E-03-4.83692178E-07 8.26330790E-11-5.14128292E-15    2
 1.61085509E+05-5.15613353E+00 2.09881658E+00 1.31588046E-02-1.49792721E-05    3
 7.85110637E-09-1.50346077E-12 1.62012128E+05 1.35091444E+01 1.63105222E+05    4
O4^+ cation       T 1/11O  4.E -1.   0.   0.G   298.150  6000.000 1000.        1
 7.57784346E+00 2.48052052E-03-9.71133430E-07 1.65738251E-10-1.03047740E-14    2
 1.70839793E+05-1.46808901E+01 1.15107802E+00 2.15570328E-02-2.10270939E-05    3
 8.21140809E-09-6.49760980E-13 1.72530097E+05 1.81430748E+01 1.73661581E+05    4
O^-               g 1/97O  1.E  1.   0.   0.G   298.150  6000.000 1000.        1
 2.54474869E+00-4.66695513E-05 1.84912357E-08-3.18159223E-12 1.98962956E-16    2
 1.15042089E+04 4.52131015E+00 2.90805921E+00-1.69804907E-03 2.98069955E-06    3
-2.43835127E-09 7.61229311E-13 1.14357717E+04 2.80339097E+00 1.22492116E+04    4
O2^-              L 4/89O   2E   1    0    0G   298.150  6000.000 1000.        1
 3.95666294E+00 5.98141823E-04-2.12133905E-07 3.63267581E-11-2.24989228E-15    2
-7.06287229E+03 2.27871017E+00 3.66442522E+00-9.28741138E-04 6.45477082E-06    3
-7.74703380E-09 2.93332662E-12-6.87076983E+03 4.35140681E+00-5.77639825E+03    4
O3^-              g 1/97O  3.E  1.   0.   0.G   298.150  6000.000 1000.        1
 5.95188221E+00 1.08039003E-03-4.24642763E-07 7.26564042E-11-4.52533445E-15    2
-1.01080130E+04-4.96701318E+00 1.90241113E+00 1.56105437E-02-2.09605956E-05    3
 1.35889864E-08-3.46558506E-12-9.16517169E+03 1.51033864E+01-8.06409518E+03    4
O4^- cyclo anion  T 1/11O  4.E  1.   0.   0.G   298.150  6000.000 1000.        1
 8.00618937E+00 2.02027580E-03-7.86172513E-07 1.33669567E-10-8.29026235E-15    2
-1.44401544E+04-1.51237720E+01 3.76742717E+00 1.52352066E-02-1.67050863E-05    3
 8.99679984E-09-1.92867534E-12-1.33342585E+04 6.42680556E+00-1.16645623E+04    4
NO                RUS 89N   1O   1    0    0G   200.000  6000.000 1000.        1
 3.26071234E+00 1.19101135E-03-4.29122646E-07 6.94481463E-11-4.03295681E-15    2
 9.92143132E+03 6.36900518E+00 4.21859896E+00-4.63988124E-03 1.10443049E-05    3
-9.34055507E-09 2.80554874E-12 9.84509964E+03 2.28061001E+00 1.09770882E+04    4
N2O               L 7/88N   2O   1    0    0G   200.000  6000.000 1000.        1
 0.48230729E+01 0.26270251E-02-0.95850872E-06 0.16000712E-09-0.97752302E-14    2
 0.80734047E+04-0.22017208E+01 0.22571502E+01 0.11304728E-01-0.13671319E-04    3
 0.96819803E-08-0.29307182E-11 0.87417746E+04 0.10757992E+02 0.98141682E+04    4
NO2               L 7/88N   1O   2    0    0G   200.000  6000.000 1000.        1
 0.48847540E+01 0.21723955E-02-0.82806909E-06 0.15747510E-09-0.10510895E-13    2
 0.23164982E+04-0.11741695E+00 0.39440312E+01-0.15854290E-02 0.16657812E-04    3
-0.20475426E-07 0.78350564E-11 0.28966180E+04 0.63119919E+01 0.41124701E+04    4
NO3               ATcT/AN  1.O  3.   0.   0.G   200.000  6000.000 1000.        1
 7.48347702E+00 2.57772064E-03-1.00945831E-06 1.72314063E-10-1.07154008E-14    2
 6.12990474E+03-1.41618136E+01 2.17359330E+00 1.04902685E-02 1.10472669E-05    3
-2.81561867E-08 1.36583960E-11 7.81290905E+03 1.46022090E+01 8.97563416E+03    4
N2O3              L 4/90N   2O   3    0    0G   200.000  6000.000 1000.        1
 9.08583845E+00 3.37756330E-03-1.31583890E-06 2.30762329E-10-1.47151267E-14    2
 7.27160146E+03-1.55361904E+01 5.81083964E+00 1.43330962E-02-1.96208597E-05    3
 1.73060735E-08-6.46553954E-12 8.19184453E+03 1.20461321E+00 1.04192062E+04    4
N2O4  O2NNO2      ATcT AN  2.O  4.   0.   0.G   200.000  6000.000 1000.        1
 1.15752932E+01 4.01615532E-03-1.57178022E-06 2.68273657E-10-1.66921538E-14    2
-2.96111235E+03-3.19488625E+01 3.02002271E+00 2.95904359E-02-3.01342572E-05    3
 1.42360526E-08-2.44100411E-12-6.79238803E+02 1.18059620E+01 1.29712996E+03    4
N2O5              ATcT AN  2.O  5.   0.   0.G   200.000  6000.000 1000.        1
 1.31108043E+01 4.87436380E-03-1.87548689E-06 3.16374735E-10-1.95927279E-14    2
-2.85932484E+03-3.46877475E+01 3.68767456E+00 3.92120802E-02-5.53770082E-05    3
 4.20097925E-08-1.31260758E-11-5.73270648E+02 1.21967861E+01 1.85663376E+03    4
NO^+              RUS 89N   1O   1E  -1    0G   298.150  6000.000 1000.        1
 2.94587702E+00 1.40325260E-03-4.95503196E-07 7.95948973E-11-4.72076668E-15    2
 1.18244340E+05 6.70644634E+00 3.69301231E+00-1.34229158E-03 2.67343395E-06    3
-1.02609308E-09-6.95610492E-14 1.18103055E+05 3.09126691E+00 1.19166025E+05    4
N2O^+             J12/70N   2O   1E  -1    0G   298.150  6000.000 1000.        1
 0.55285660E+01 0.19596138E-02-0.75377712E-06 0.12704886E-09-0.78022397E-14    2
 0.15842390E+06-0.44187923E+01 0.32869103E+01 0.74022215E-02-0.48666444E-05    3
 0.73292750E-09 0.29823434E-12 0.15910253E+06 0.74013737E+01 0.16037012E+06    4
NO2^+             ATcT AN  1.O  2.E -1.   0.G   298.150  6000.000 1000.        1
 4.34739782E+00 2.51040238E-03-9.39355569E-07 1.54999215E-10-9.19955387E-15    2
 1.14465056E+05 2.74113794E+00 3.56214086E+00 3.43628731E-03-1.19400585E-07    3
-1.31592209E-09 5.01138796E-13 1.14779715E+05 7.19236092E+00 1.15991081E+05    4
NO^-  anion       T 4/16N  1.O  1.E  1.   0.G   298.150  6000.000 1000.        1
 3.68353191E+00 8.37252448E-04-3.15197942E-07 5.33094078E-11-3.29420062E-15    2
 8.60364845E+03 3.86332845E+00 3.56601901E+00-1.73810582E-03 8.25578308E-06    3
-9.10347890E-09 3.27538426E-12 8.78530820E+03 5.19753973E+00 9.82775894E+03    4
N2O^-             ATcT AN  2.O  1.E  1.   0.G   200.000  6000.000 1000.        1
 0.48230729E+01 0.26270251E-02-0.95850872E-06 0.16000712E-09-0.97752302E-14    2
 0.80734047E+04-0.22017208E+01 0.22571502E+01 0.11304728E-01-0.13671319E-04    3
 0.96819803E-08-0.29307182E-11 0.87417746E+04 0.10757992E+02 0.98141682E+04    4
NO2^-             ATcT AN  1.O  2.E  1.   0.G   298.150  6000.000 1000.        1
 5.05329295E+00 2.07555669E-03-8.70003158E-07 1.61074272E-10-1.03448075E-14    2
-2.48799387E+04-1.54065148E+00 3.09783735E+00 3.70485651E-03 5.92940718E-06    3
-1.09497497E-08 4.62722459E-12-2.41554110E+04 9.48236787E+00-2.30341896E+04    4
NO3^-             ATcT AN  1.O  3.E  1.   0.G   298.150  6000.000 1000.        1
 6.88404855E+00 3.16062776E-03-1.23048672E-06 2.09257769E-10-1.29795331E-14    2
-4.02238537E+04-1.17087162E+01 1.21258706E+00 1.71545064E-02-1.05270150E-05    3
-1.16077079E-09 2.33116021E-12-3.85768096E+04 1.79933787E+01-3.75470112E+04    4
H2 REF ELEMENT    tpis78H  2.   0.   0.   0.G   200.000  6000.000 1000.        1
 2.93286575E+00 8.26608026E-04-1.46402364E-07 1.54100414E-11-6.88804800E-16    2
-8.13065581E+02-1.02432865E+00 2.34433112E+00 7.98052075E-03-1.94781510E-05    3
 2.01572094E-08-7.37611761E-12-9.17935173E+02 6.83010238E-01 0.00000000E+00    4
H                 L 6/94H   1    0    0    0G   200.000  6000.000 1000.        1
 0.25000000E+01 0.00000000E+00 0.00000000E+00 0.00000000E+00 0.00000000E+00    2
 0.25473660E+05-0.44668285E+00 0.25000000E+01 0.00000000E+00 0.00000000E+00    3
 0.00000000E+00 0.00000000E+00 0.25473660E+05-0.44668285E+00 0.26219035E+05    4
H^+               g10/00H  1.E -1.   0.   0.G   298.150  6000.000 1000.        1
 2.50000000E+00 0.00000000E+00 0.00000000E+00 0.00000000E+00 0.00000000E+00    2
 1.84021488E+05-1.14064664E+00 2.50000000E+00 0.00000000E+00 0.00000000E+00    3
 0.00000000E+00 0.00000000E+00 1.84021488E+05-1.14064664E+00 1.84766863E+05    4
H2^+              ATcT AH  2.E -1.   0.   0.G   298.150  6000.000 1000.        1
 3.44204765E+00 5.99083239E-04 6.69133685E-08-3.43574373E-11 1.97626599E-15    2
 1.78650236E+05-2.79499055E+00 3.77256072E+00-1.95746590E-03 4.54812047E-06    3
-2.82152141E-09 5.33969209E-13 1.78694654E+05-3.96609192E+00 1.79767298E+05    4
H3^+ TRIHYDROGEN  T 6/11H  3.E -1.   0.   0.G   298.150  6000.000 1000.        1
 2.01435718E+00 4.15925769E-03-1.42664877E-06 2.22372739E-10-1.29346518E-14    2
 1.33230507E+05 5.46168967E+00 4.17956980E+00-8.68875627E-04-1.09017371E-07    3
 4.13349766E-09-2.37877027E-12 1.32635537E+05-5.83800100E+00 1.33849138E+05    4
H^-               L/7/88H   1E   1    0    0G   298.150  6000.000 1000.        1
 0.25000000E+01 0.00000000E+00 0.00000000E+00 0.00000000E+00 0.00000000E+00    2
 0.15976167E+05-0.11390139E+01 0.25000000E+01 0.00000000E+00 0.00000000E+00    3
 0.00000000E+00 0.00000000E+00 0.15976167E+05-0.11390139E+01 0.16721542E+05    4
HO2               T 1/09H  1.O  2.   0.   0.G   200.000  5000.000 1000.        1
 4.17228741E+00 1.88117627E-03-3.46277286E-07 1.94657549E-11 1.76256905E-16    2
 3.10206839E+01 2.95767672E+00 4.30179807E+00-4.74912097E-03 2.11582905E-05    3
-2.42763914E-08 9.29225225E-12 2.64018485E+02 3.71666220E+00 1.47886045E+03    4
H2O               L 5/89H   2O   1    0    0G   200.000  6000.000 1000.        1
 0.26770389E+01 0.29731816E-02-0.77376889E-06 0.94433514E-10-0.42689991E-14    2
-0.29885894E+05 0.68825500E+01 0.41986352E+01-0.20364017E-02 0.65203416E-05    3
-0.54879269E-08 0.17719680E-11-0.30293726E+05-0.84900901E+00-0.29084817E+05    4
H2O2              T 8/03H  2.O  2.   0.   0.G   200.000  6000.000 1000.        1
 4.57977305E+00 4.05326003E-03-1.29844730E-06 1.98211400E-10-1.13968792E-14    2
-1.80071775E+04 6.64970694E-01 4.31515149E+00-8.47390622E-04 1.76404323E-05    3
-2.26762944E-08 9.08950158E-12-1.77067437E+04 3.27373319E+00-1.63425145E+04    4
OH HYDROXYL RADI  IU3/03O  1.H  1.   0.   0.G   200.000  6000.000 1000.        1
 2.83853033E+00 1.10741289E-03-2.94000209E-07 4.20698729E-11-2.42289890E-15    2
 3.69780808E+03 5.84494652E+00 3.99198424E+00-2.40106655E-03 4.61664033E-06    3
-3.87916306E-09 1.36319502E-12 3.36889836E+03-1.03998477E-01 4.48613328E+03    4
H3O^+             ATcT AH  3.O  1.E -1.   0.G   298.150  6000.000 1000.        1
 2.49647765E+00 5.72844840E-03-1.83953239E-06 2.73577348E-10-1.54093917E-14    2
 7.16244227E+04 7.45850493E+00 3.79295251E+00-9.10852723E-04 1.16363521E-05    3
-1.21364865E-08 4.26159624E-12 7.14027518E+04 1.47156927E+00 7.25739701E+04    4
NH3  RRHO         A12/04H  3.N  1.   0.   0.G   200.000  6000.000 1000.        1
 2.09566674E+00 6.14750045E-03-2.00328925E-06 3.01334626E-10-1.71227204E-14    2
-6.30945436E+03 9.59574081E+00 4.46075151E+00-5.68781763E-03 2.11411484E-05    3
-2.02849980E-08 6.89500555E-12-6.70753514E+03-1.34450793E+00-5.48041917E+03    4
NH2  AMIDOGEN RAD IU3/03N  1.H  2.   0.   0.G   200.000  3000.000 1000.        1
 2.59263049E+00 3.47683597E-03-1.08271624E-06 1.49342558E-10-5.75241187E-15    2
 2.15737320E+04 7.90565351E+00 4.19198016E+00-2.04602827E-03 6.67756134E-06    3
-5.24907235E-09 1.55589948E-12 2.11863286E+04-9.04785244E-02 2.23945849E+04    4
NH                ATcT/AN  1.H  1.   0.   0.G   200.000  6000.000 1000.        1
 2.78372644E+00 1.32985888E-03-4.24785573E-07 7.83494442E-11-5.50451310E-15    2
 4.23461945E+04 5.74084863E+00 3.49295037E+00 3.11795720E-04-1.48906628E-06    3
 2.48167402E-09-1.03570916E-12 4.21059722E+04 1.84834973E+00 4.31525130E+04    4
NNH               120186N   2H   1          G  0250.000  4000.00  1000.00      1
 0.04415342E+02 0.01614388E-01-0.01632894E-05-0.08559846E-09 0.01614791E-12    2
 0.02788029E+06 0.09042888E+01 0.03501344E+02 0.02053587E-01 0.07170410E-05    3
 0.04921348E-08-0.09671170E-11 0.02833347E+06 0.06391837E+02                   4
N2H2 equil & transT 9/11N  2.H  2.   0.   0.G   200.000  6000.000 1000.        1
 1.31115117E+00 9.00187208E-03-3.14911824E-06 4.81449581E-10-2.71897891E-14    2
 2.33863341E+04 1.64091067E+01 4.91066031E+00-1.07791880E-02 3.86516489E-05    3
-3.86501698E-08 1.34852134E-11 2.28241901E+04 9.10273396E-02 2.40806734E+04    4
N2H3   Rad.       T 7/11N  2.H  3.   0.   0.G   200.000  6000.000 1000.        1
 4.04483566E+00 7.31130186E-03-2.47625799E-06 3.83733021E-10-2.23107573E-14    2
 2.53241420E+04 2.88423392E+00 3.42125505E+00 1.34901590E-03 2.23459071E-05    3
-2.99727732E-08 1.20978970E-11 2.58198956E+04 7.83176309E+00 2.70438066E+04    4
N2H4 HYDRAZINE    L 5/90N   2H   4    0    0G   200.000  6000.000 1000.        1
 4.93957357E+00 8.75017187E-03-2.99399058E-06 4.67278418E-10-2.73068599E-14    2
 9.28265548E+03-2.69439772E+00 3.83472149E+00-6.49129555E-04 3.76848463E-05    3
-5.00709182E-08 2.03362064E-11 1.00893925E+04 5.75272030E+00 1.14474575E+04    4 
NH3^+ cation      T09/09N  1.H  3.E -1.   0.G   298.150  6000.000 1000.        1
 2.58855213E+00 5.74163681E-03-1.86472122E-06 2.79719766E-10-1.58594375E-14    2
 1.12470081E+05 7.60835234E+00 3.62055372E+00 6.38852979E-04 8.28649096E-06    3
-9.01954415E-09 3.20297454E-12 1.12286783E+05 2.80176176E+00 1.13451544E+05    4
NH2^+ cation      T09/09N  1.H  2.E -1.   0.G   298.150  6000.000 1000.        1
 2.66715572E+00 3.42795845E-03-1.12917766E-06 1.71028505E-10-9.76274694E-15    2
 1.51884335E+05 6.81237195E+00 4.11218890E+00-1.58941762E-03 5.72106358E-06    3
-4.30114907E-09 1.18451647E-12 1.51543764E+05-3.85152148E-01 1.52741773E+05    4
NH^+              L 2/89N   1H   1E  -1    0G   298.150  6000.000 1000.        1
 2.95918980E+00 1.34991719E-03-4.61487782E-07 8.26977666E-11-5.55758913E-15    2
 1.99524505E+05 5.59978021E+00 4.61611136E+00-3.13435677E-03 2.91705130E-06    3
 2.57384848E-10-7.31431347E-13 1.99085043E+05-2.92758460E+00 2.00347960E+05    4
N2H^+             T 8/11N  2.H  1.E -1.   0.G   200.000  6000.000 1000.        1
 3.42744423E+00 3.23295234E-03-1.17296299E-06 1.90508356E-10-1.14491506E-14    2
 2.87676026E+04 6.39209233E+00 4.25474632E+00-3.45098298E-03 1.37788699E-05    3
-1.33263744E-08 4.41023397E-12 2.87932080E+04 3.28551762E+00 3.00058572E+04    4
NH4^+             T 3/14N  1.H  4.E -1.   0.G   298.150  6000.000 1000.        1
 1.31570332E+00 9.64926655E-03-3.29049612E-06 5.12045458E-10-2.98499121E-14    2
 7.58852079E+04 1.20930966E+01 5.02209414E+00-1.17099068E-02 3.97600414E-05    3
-3.69420221E-08 1.20264627E-11 7.54604790E+04-4.20522854E+00 7.67212981E+04    4
HNO               ATcT/AH  1.N  1.O  1.   0.G   200.000  6000.000 1000.        1
 3.16598124E+00 2.99958892E-03-3.94376786E-07-3.85344089E-11 7.07602668E-15    2
 1.17726311E+04 7.64511172E+00 4.53525574E+00-5.68543377E-03 1.85198540E-05    3
-1.71881225E-08 5.55818157E-12 1.16183003E+04 1.74315886E+00 1.28500657E+04    4
NOH               T11/11N  1.O  1.H  1.   0.G   200.000  6000.000  B  31.01408 1
 4.00745749E+00 2.41824666E-03-8.13734001E-07 1.25573064E-10-7.28062602E-15    2
 2.43965586E+04 4.01091333E+00 4.30796097E+00-5.01538487E-03 2.27054537E-05    3
-2.65676371E-08 1.02998699E-11 2.45850141E+04 3.93009562E+00 2.57994759E+04    4
HNOH trans & Equ  T11/11H  2.N  1.O  1.   0.G   200.000  6000.000 1000.        1
 3.98321933E+00 4.88846374E-03-1.65086637E-06 2.55371446E-10-1.48308561E-14    2
 1.05780106E+04 3.62582838E+00 3.95608248E+00-3.02611020E-03 2.56874396E-05    3
-3.15645120E-08 1.24084574E-11 1.09199790E+04 5.55950983E+00 1.21354115E+04    4
H2NO              102290H   2N   1O   1     G  0300.00   4000.00  1500.00      1
 0.05673346E+02 0.02298837E-01-0.01774446E-05-0.01103482E-08 0.01859762E-12    2
 0.05569325E+05-0.06153540E+02 0.02530590E+02 0.08596035E-01-0.05471030E-04    3
 0.02276249E-07-0.04648073E-11 0.06868030E+05 0.01126651E+03                   4
HNNO              103190H   1N   2O   1     G  0300.00   4000.00  1500.00      1
 0.06991217E+02 0.01875970E-01-0.02124584E-05-0.06710472E-09 0.12305080E-13    2
 0.02497566E+06-0.11235229E+02 0.02238298E+02 0.13591997E-01-0.11798728E-04    3
 0.05392970E-07-0.10108589E-11 0.02660258E+06 0.14136789E+02                   4
HONO trans        T 2/14H  1.N  1.O  2.   0.G   200.000  6000.000 1000.        1
 5.59069580E+00 3.76633148E-03-1.32079549E-06 2.10072062E-10-1.24546207E-14    2
-1.16009741E+04-3.66793086E+00 2.55834541E+00 1.11295585E-02-5.09304078E-06    3
-2.76314117E-09 2.40212731E-12-1.07324351E+04 1.21891248E+01-9.52431352E+03    4
HNO3              T 8/03H  1.N  1.O  3.   0.G   200.000  6000.000 1000.        1
 8.03098942E+00 4.46958589E-03-1.72459491E-06 2.91556153E-10-1.80102702E-14    2
-1.93138183E+04-1.62616537E+01 1.69329154E+00 1.90167702E-02-8.25176697E-06    3