ELEM
E N O H AR
END

SPECIES
! NITROGEN: N2 = N2(X1), N = N(4S)
!           N2(W3,B`3)  -> N2(B3)
!           N2(a1,w1)   -> N2(a`1)
!           N2(E3,a``1) -> N2(C3)
!           N2(SUM) -> N + N(2D)
N2
N2(v1) N2(v2) N2(v3) N2(v4) N2(v5) N2(v6) N2(v7) N2(v8)
! N2(v9) N2(v10) N2(v11) N2(v12) N2(v13) N2(v14) N2(v15)
N2(A3) N2(B3) N2(a`1) N2(C3) 
! N2(B1) N2(b`1)
N N(2D) N(2P)
N^+ N2^+ N3^+ N4^+

! OXYGEN:   O2 = O2(X3), O = O(3P)
!           O2(4.5eV)  = O2(A3) + O2(C3) + O2(c1)
!           O2(6.0eV)  -> O + O
!           O2(8.4eV)  -> O + O(1D)
!           O2(9.97eV) -> O + O(1S)
O2
O2(v1) O2(v2) O2(v3) O2(v4)
O2(a1) O2(b1) O2(4.5eV)
O O(1D) O(1S)
O3
O^+ O2^+ O3^+ O4^+
O^- O2^- O3^- O4^-

! NITROGEN OXIDE: NO = NO(X2)
NO   N2O   NO2   NO3   N2O3   N2O4   N2O5
NO^+ N2O^+ NO2^+
NO^- N2O^- NO2^- NO3^-

! HIDOROGEN
H2
! H2(v1) H2(v2) H2(v3)
! H2(B3) H2(B1) H2(C3) H2(A3)
H
H^+ H2^+ H3^+
H^- 

!HIDOROGEN OXIDE
HO2 H2O H2O2
OH
H3O^+


! AMMONIA and NHx
NH3
!NH3(v2) NH3(v4) NH3(v13)
NH2 NH NNH N2H2 N2H3 N2H4
NH3^+ NH2^+ NH^+ N2H^+ NH4^+

! MISC
HNO HNOH H2NO HNNO HONO HNO3 NH2OH
!O2^+N2
E AR

END

REACTIONS

!*********************************************************************
!
! A.KONNOV's detailed reaction mechanism   VER 0.6 CHECKED 
! C6H10, C6H9 deleted 3/5/99, C3H4CY deleted 4/5/99
! NH2OH added 11/11/99 HNOH, H2NO added 12/11/99
! HNNO added 13/11/99 C2H5CHO added 16/03/00 C2H5CO added 17/03/00
! HCNH, CH3NO, H2CNO added 20/06/00 NCN, HNCN included 1/9/2008
!*********************************************************************
H+H+M=H2+M                     7.000E+17     -1.0         0.0
 H2/0.0/ N2/0.0/ H/0.0/ H2O/14.3/
H+H+H2=H2+H2                   1.000E+17     -0.6         0.0 
H+H+N2=H2+N2                   5.400E+18     -1.3         0.0 
H+H+H=H2+H                     3.200E+15      0.0         0.0 
O+O+M=O2+M                     1.000E+17     -1.0         0.0 
 O/71.0/ O2/20.0/ NO/5.0/ N2/5.0/ N/5.0/ H2O/5.0/
O+H+M=OH+M                     6.200E+16     -0.6         0.0 
 H2O/5.0/ 
H2+O2=OH+OH                    2.500E+12      0.0     39000.0 
O+H2=OH+H                      5.060E+04      2.67     6290.0 
H+O2=OH+O                      9.750E+13      0.0     14850.0 
H+O2(+M)=HO2(+M)               1.480E+12      0.6         0.0 
    LOW /3.50E+16 -0.41 -1116.0/ 
    TROE /0.5 100000 10/
 AR/0.0/ H2O/10.6/ H2/1.5/
H+O2(+AR)=HO2(+AR)             1.480E+12      0.6         0.0
    LOW /7.00E+17 -0.8  0.0/
    TROE /0.45 10 100000/ 
H+OH+M=H2O+M                   2.200E+22     -2.0         0.0 
 H2O/6.4/ AR/0.38/
H2+OH=H2O+H                    1.000E+08      1.6      3300.0 
OH+OH=H2O+O                    1.500E+09      1.14      100.0 
HO2+OH=H2O+O2                  2.890E+13      0.0      -500.0 
HO2+O=OH+O2                    1.630E+13      0.0      -445.0 
H+HO2=H2+O2                    4.280E+13      0.0      1411.0 
H+HO2=OH+OH                    1.700E+14      0.0       875.0 
H+HO2=H2O+O                    3.000E+13      0.0      1720.0 
HO2+HO2=H2O2+O2                4.200E+14      0.0     12000.0 
    DUPLICATE
HO2+HO2=H2O2+O2                1.300E+11      0.0     -1640.0 
    DUPLICATE
OH+OH(+M)=H2O2(+M)             7.200E+13     -0.37        0.0 
    LOW /2.2E+19 -0.76 0.0/ 
    TROE /0.5 100000 10/
    H2O/0.0/
OH+OH(+H2O)=H2O2(+H2O)         7.200E+13     -0.37        0.0 
    LOW /1.45E+18 0.0 0.0/ 
H2O2+OH=HO2+H2O                1.000E+12      0.0         0.0 
    DUPLICATE
H2O2+OH=HO2+H2O                5.800E+14      0.0      9560.0 
    DUPLICATE 
H2O2+H=HO2+H2                  1.700E+12      0.0      3755.0 
H2O2+H=H2O+OH                  1.000E+13      0.0      3575.0 
H2O2+O=HO2+OH                  2.800E+13      0.0      6400.0 

N2+O=NO+N                      1.800E+14      0.0     76100.0
N+O2=NO+O                      9.000E+09      1.0      6500.0
NO+M=N+O+M                     9.640E+14      0.0    148300.0
    N2 /1.5/ NO /3.0/
NO+NO=N2+O2                    3.000E+11      0.0     65000.0
N2O(+M)=N2+O(+M)               1.260E+12      0.0     62620.0
    LOW / 4.000E+14 0.0 56640.0/ 
   O2/1.4/ N2/1.7/ H2O/12.0/ NO/3.0/ N2O/3.5/
N2O+O=N2+O2                    1.000E+14      0.0     28200.0
N2O+O=NO+NO                    6.920E+13      0.0     26630.0
N2O+N=N2+NO                    1.000E+13      0.0     20000.0
N2O+NO=N2+NO2                  2.750E+14      0.0     50000.0
NO+O(+M)=NO2(+M)               1.300E+15     -0.75        0.0 
    LOW /4.72E+24 -2.87 1551.0/
    TROE /0.962 10.0 7962.0 /
    AR /0.6/ NO2 /6.2/ NO /1.8/ O2 /0.8/ N2O /4.4/
    H2O /10.0/
NO2+O=NO+O2                    3.910E+12      0.0      -238.0 
NO2+N=N2O+O                    8.400E+11      0.0         0.0
NO2+N=NO+NO                    1.000E+12      0.0         0.0
NO2+NO=N2O+O2                  1.000E+12      0.0     60000.0
NO2+NO2=NO+NO+O2               3.950E+12      0.0     27590.0 
NO2+NO2=NO3+NO                 1.130E+04      2.58    22720.0 
NO2+O(+M)=NO3(+M)              1.330E+13      0.0         0.0
    LOW / 1.49E+28 -4.08 2467.0 /
    TROE /0.86 10.0 2800.0 /
    H2O/10.0/ O2/0.8/ H2/2.0/
NO3=NO+O2                      2.500E+06      0.0     12120.0
NO3+NO2=NO+NO2+O2              1.200E+11      0.0      3200.0 
NO3+O=NO2+O2                   1.020E+13      0.0         0.0
NO3+NO3=NO2+NO2+O2             5.120E+11      0.0      4870.0
N2O4(+M)=NO2+NO2(+M)           4.050E+18     -1.1     12840.0
     LOW /1.96E+28  -3.8  12840./
     AR/0.8/ N2O4/2.0/ NO2/2.0/
N2O4+O=N2O3+O2                 1.210E+12      0.0         0.0
NO2+NO(+M)=N2O3(+M)            1.600E+09      1.4         0.0
     LOW /1.0E+33  -7.7  0.0/
     N2/1.36/
N2O3+O=NO2+NO2                 2.710E+11      0.0         0.0
N2+M=N+N+M                     1.000E+28     -3.33   225000.0
    N/5/ O/2.2/
NH+M=N+H+M                     2.650E+14      0.0     75500.0
NH+H=N+H2                      3.200E+13      0.0       325.0
NH+N=N2+H                      9.000E+11      0.5         0.0
NH+NH=NNH+H                    5.100E+13      0.0         0.0
NH+NH=NH2+N                    5.950E+02      2.89    -2030.0
NH+NH=N2+H2                    1.000E+08      1.0         0.0
NH2+M=NH+H+M                   3.160E+23     -2.0     91400.0
NH+H2=NH2+H                    1.000E+14      0.0     20070.0
NH2+N=N2+H+H                   6.900E+13      0.0         0.0
NH2+NH=N2H2+H                  1.500E+15     -0.5         0.0
NH2+NH=NH3+N                   1.000E+13      0.0      2000.0
NH3+NH=NH2+NH2                 3.160E+14      0.0     26770.0
NH2+NH2=N2H2+H2                1.000E+13      0.0      1500.0
N2H3+H=NH2+NH2                 5.000E+13      0.0      2000.0
NH3+M=NH2+H+M                  2.200E+16      0.0     93470.0
NH3+M=NH+H2+M                  6.300E+14      0.0     93390.0
NH3+H=NH2+H2                   5.420E+05      2.4      9920.0
NH3+NH2=N2H3+H2                1.000E+11      0.5     21600.0
NNH=N2+H                       3.000E+08      0.0         0.0
!     DUPLICATE
NNH+M=N2+H+M                   1.000E+13      0.5      3060.0
!     DUPLICATE
NNH+H=N2+H2                    1.000E+14      0.0         0.0
NNH+N=NH+N2                    3.000E+13      0.0      2000.0
NNH+NH=N2+NH2                  2.000E+11      0.5      2000.0
NNH+NH2=N2+NH3                 1.000E+13      0.0         0.0
NNH+NNH=N2H2+N2                1.000E+13      0.0      4000.0
N2H2+M=NNH+H+M                 5.000E+16      0.0     50000.0
     H2O/15.0/ O2/2.0/ N2/2.0/ H2/2.0/
N2H2+M=NH+NH+M                 3.160E+16      0.0     99400.0
     H2O/15.0/ O2/2.0/ N2/2.0/ H2/2.0/
N2H2+H=NNH+H2                  8.500E+04      2.63     -230.0
N2H2+N=NNH+NH                  1.000E+06      2.0         0.0 
N2H2+NH=NNH+NH2                1.000E+13      0.0      6000.0
N2H2+NH2=NH3+NNH               8.800E-02      4.05    -1610.0
N2H3+NH=N2H2+NH2               2.000E+13      0.0         0.0
N2H3+NNH=N2H2+N2H2             1.000E+13      0.0      4000.0
N2H3+M=NH2+NH+M                5.000E+16      0.0     60000.0
N2H3+M=N2H2+H+M                1.000E+16      0.0     37000.0
N2H3+H=N2H2+H2                 1.000E+13      0.0         0.0
N2H3+H=NH+NH3                  1.000E+11      0.0         0.0
N2H3+N=N2H2+NH                 1.000E+06      2.0         0.0 
N2H3+NH2=NH3+N2H2              1.000E+11      0.5         0.0
N2H3+N2H2=N2H4+NNH             1.000E+13      0.0      6000.0
N2H3+N2H3=NH3+NH3+N2           3.000E+12      0.0         0.0
N2H3+N2H3=N2H4+N2H2            1.200E+13      0.0         0.0 
N2H4(+M)=NH2+NH2(+M)           5.000E+14      0.0     60000.0
    LOW/1.50E+15 0.0 39000.0 /
  N2/2.4/ NH3/3.0/ N2H4/4.0/
N2H4+M=N2H3+H+M                1.000E+15      0.0     63600.0
  N2/2.4/ NH3/3.0/ N2H4/4.0/ 
N2H4+H=N2H3+H2                 7.000E+12      0.0      2500.0
N2H4+H=NH2+NH3                 2.400E+09      0.0      3100.0
N2H4+N=N2H3+NH                 1.000E+10      1.0      2000.0
N2H4+NH=NH2+N2H3               1.000E+09      1.5      2000.0
N2H4+NH2=N2H3+NH3              1.800E+06      1.71    -1380.0

N+OH=NO+H                      2.800E+13      0.0         0.0 
N2O+H=N2+OH                    2.200E+14      0.0     16750.0 
N2O+H=NH+NO                    6.700E+22     -2.16    37155.0
N2O+H=NNH+O                    5.500E+18     -1.06    47290.0 
N2O+H=HNNO                     8.000E+24     -4.39    10530.0 
N2O+OH=N2+HO2                  1.000E+14      0.0     30000.0 
HNO+NO=N2O+OH                  8.500E+12      0.0     29580.0 
HNO+NO+NO=HNNO+NO2             1.600E+11      0.0      2090.0 
NH+NO+M=HNNO+M                 1.630E+23     -2.6      1820.0 
HNNO+H=N2O+H2                  2.000E+13      0.0         0.0 
HNNO+H=NH2+NO                  1.000E+12      0.0         0.0 
HNNO+O=N2O+OH                  2.000E+13      0.0         0.0 
HNNO+OH=H2O+N2O                2.000E+13      0.0         0.0 
HNNO+OH=HNOH+NO                1.000E+12      0.0         0.0 
HNNO+NO=N2+HONO                2.600E+11      0.0      1610.0 
HNNO+NO=NNH+NO2                3.200E+12      0.0       540.0 
HNNO+NO=N2O+HNO                1.000E+12      0.0         0.0 
HNNO+NO2=N2O+HONO              1.000E+12      0.0         0.0 
HNNO+NO2=NNH+NO3               1.000E+13      0.0     17000.0 
NO2+H=NO+OH                    1.320E+14      0.0       362.0 
NO2+OH=HO2+NO                  1.810E+13      0.0      6676.0 
NO2+HO2=HONO+O2                4.640E+11      0.0      -479.0
NO2+H2=HONO+H                  7.330E+11      0.0     28800.0  
NO2+NH=N2O+OH                  8.650E+10      0.0     -2270.0
NO2+NH=NO+HNO                  1.245E+11      0.0     -2270.0 
NO3+H=NO2+OH                   6.620E+13      0.0         0.0
NO3+OH=NO2+HO2                 1.210E+13      0.0         0.0
NO3+HO2=HNO3+O2                5.550E+11      0.0         0.0
NO3+HO2=NO2+OH+O2              1.510E+12      0.0         0.0
N2O4+H2O=HONO+HNO3             2.520E+14      0.0     11590.0
N2O3+H2O=HONO+HONO             3.790E+13      0.0      8880.0
H+NO(+M)=HNO(+M)               1.520E+15     -0.41        0.0
    LOW /4.00E+20 -1.75 0.0 /
    H2O/10.0/ O2/1.5/ AR/0.75/ H2/2.0/
HNO+H=NO+H2                    4.460E+11      0.72      655.0 
HNO+OH=NO+H2O                  1.300E+07      1.88     -956.0 
HNO+O=OH+NO                    5.000E+11      0.5      2000.0
HNO+O=NO2+H                    5.000E+10      0.0      2000.0
HNO+O2=NO+HO2                  2.200E+10      0.0      9140.0
HNO+N=NO+NH                    1.000E+11      0.5      2000.0 
HNO+N=H+N2O                    5.000E+10      0.5      3000.0
HNO+NH=NH2+NO                  5.000E+11      0.5         0.0
HNO+NH2=NH3+NO                 2.000E+13      0.0      1000.0 
HNO+HNO=N2O+H2O                3.630E-03      3.98     1190.0 
HNO+HNO=HNOH+NO                2.000E+08      0.0      4170.0 
HNO+NO2=HONO+NO                6.020E+11      0.0      2000.0
NO+OH(+M)=HONO(+M)             2.000E+12     -0.05     -721.0 
    LOW / 5.08E+23 -2.51 -67.6 /
    TROE /0.62 10.0 100000.0 /
    H2O/10.0/ O2/2.0/ AR/0.75/ H2/2.0/
NO2+H+M=HONO+M                 1.400E+18     -1.5       900.0
HONO+H=HNO+OH                  5.640E+10      0.86     4970.0 
HONO+H=NO+H2O                  8.120E+06      1.89     3840.0 
HONO+O=OH+NO2                  1.200E+13      0.0      5960.0
HONO+OH=H2O+NO2                1.690E+12      0.0      -517.0 
HONO+NH=NH2+NO2                1.000E+13      0.0         0.0 
HONO+HONO=H2O+NO2+NO           1.000E+13      0.0      8540.0
HONO+NH2=NO2+NH3               5.000E+12      0.0         0.0
NO2+OH(+M)=HNO3(+M)            2.410E+13      0.0         0.0
    LOW / 6.42E+32 -5.49 2350.0 /
    TROE /1.0 10.0 1168.0 /
    H2O/10.0/ O2/2.0/ AR/0.75/ H2/2.0/
NO+HO2+M=HNO3+M                1.500E+24     -3.5      2200.0
HNO3+H=H2+NO3                  5.560E+08      1.53    16400.0 
HNO3+H=H2O+NO2                 6.080E+01      3.29     6290.0 
HNO3+H=OH+HONO                 3.820E+05      2.3      6980.0 
HNO3+OH=NO3+H2O                1.030E+10      0.0     -1240.0
NH3+O=NH2+OH                   1.100E+06      2.1      5210.0 
NH3+OH=NH2+H2O                 5.000E+07      1.6       950.0 
NH3+HO2=NH2+H2O2               3.000E+11      0.0     22000.0
NH2+HO2=NH3+O2                 1.650E+04      1.55     2027.0 
NH2+O=H2+NO                    5.000E+12      0.0         0.0 
NH2+O=HNO+H                    4.500E+13      0.0         0.0 
NH2+O=NH+OH                    7.000E+12      0.0         0.0 
NH2+OH=NH+H2O                  9.000E+07      1.5      -460.0 
NH2+OH=NH2OH                   1.790E+13      0.2         0.0 
NH2+HO2=HNO+H2O                5.680E+15     -1.12      707.0 
NH2+HO2=H2NO+OH                2.910E+17     -1.32     1248.0 
NH2+O2=HNO+OH                  1.000E+13      0.0     26290.0 
NH2+O2=H2NO+O                  6.000E+13      0.0     29880.0 
NH2+NO=NNH+OH                  2.290E+10      0.425    -814.0
NH2+NO=N2+H2O                  2.770E+20     -2.65     1258.0 
NH2+NO=H2+N2O                  1.000E+13      0.0     33700.0 
NH2+NO2=N2O+H2O                1.620E+16     -1.44      270.0
NH2+NO2=H2NO+NO                6.480E+16     -1.44      270.0 
NH+O=NO+H                      7.000E+13      0.0         0.0 
NH+O=N+OH                      7.000E+12      0.0         0.0 
NH+OH=HNO+H                    2.000E+13      0.0         0.0 
NH+OH=N+H2O                    2.000E+09      1.2         0.0 
NH+OH=NO+H2                    2.000E+13      0.0         0.0 
NH+HO2=HNO+OH                  1.000E+13      0.0      2000.0
NH+O2=HNO+O                    4.000E+13      0.0     17880.0 
NH+O2=NO+OH                    4.500E+08      0.79     1190.0 
NH+H2O=HNO+H2                  2.000E+13      0.0     13850.0 
NH+N2O=N2+HNO                  2.000E+12      0.0      6000.0
NNH+O=NH+NO                    2.000E+14      0.0      4000.0 
NH+NO=N2+OH                    6.100E+13     -0.50      120.0 
N2H4+O=N2H2+H2O                8.500E+13      0.0      1200.0
N2H4+O=N2H3+OH                 2.500E+12      0.0      1200.0 
N2H4+OH=N2H3+H2O               3.000E+10      0.68     1290.0
N2H4+OH=NH3+H2NO               3.670E+13      0.0         0.0 
N2H4+HO2=N2H3+H2O2             4.000E+13      0.0      2000.0 
N2H3+O=N2H2+OH                 2.000E+13      0.0      1000.0
N2H3+O=NNH+H2O                 3.160E+11      0.5         0.0 
N2H3+O=NH2+HNO                 1.000E+13      0.0         0.0
N2H3+OH=N2H2+H2O               3.000E+10      0.68     1290.0
N2H3+OH=NH3+HNO                1.000E+12      0.0     15000.0 
N2H3+O2=N2H2+HO2               3.000E+12      0.0         0.0
N2H3+HO2=N2H2+H2O2             1.000E+13      0.0      2000.0 
N2H3+HO2=N2H4+O2               8.000E+12      0.0         0.0
N2H3+NO=HNO+N2H2               1.000E+12      0.0         0.0 
N2H2+O=NH2+NO                  1.000E+13      0.0         0.0 
N2H2+O=NNH+OH                  2.000E+13      0.0      1000.0 
N2H2+OH=NNH+H2O                5.920E+01      3.4     -1360.0 
N2H2+HO2=NNH+H2O2              1.000E+13      0.0      2000.0 
N2H2+NO=N2O+NH2                3.000E+10      0.0         0.0 
NNH+O=N2+OH                    1.700E+16     -1.23      500.0
NNH+OH=N2+H2O                  2.400E+22     -2.88     2444.0 
NNH+O2=N2+HO2                  1.200E+12     -0.34      150.0
NNH+O2=N2O+OH                  2.900E+11     -0.34      150.0
NNH+HO2=N2+H2O2                1.000E+13      0.0      2000.0 
NNH+NO=N2+HNO                  5.000E+13      0.0         0.0 
NH2OH+OH=HNOH+H2O              2.500E+13      0.0      4250.0
H2NO+M=H2+NO+M                 7.830E+27     -4.29    60300.0 
  H2O/10.0/
H2NO+M=HNO+H+M                 2.800E+24     -2.83    64915.0 
  H2O/10.0/
H2NO+M=HNOH+M                  1.100E+29     -3.99    43980.0
  H2O/10.0/
H2NO+H=HNO+H2                  3.000E+07      2.0      2000.0 
H2NO+H=NH2+OH                  5.000E+13      0.0         0.0 
H2NO+O=HNO+OH                  3.000E+07      2.0      2000.0 
H2NO+OH=HNO+H2O                2.000E+07      2.0      1000.0 
H2NO+HO2=HNO+H2O2              2.900E+04      2.69    -1600.0 
H2NO+NH2=HNO+NH3               3.000E+12      0.0      1000.0 
H2NO+O2=HNO+HO2                3.000E+12      0.0     25000.0
H2NO+NO=HNO+HNO                2.000E+07      2.0     13000.0 
H2NO+NO2=HONO+HNO              6.000E+11      0.0      2000.0 
HNOH+M=HNO+H+M                 2.000E+24     -2.84    58935.0 
   H2O/10.0/
HNOH+H=HNO+H2                  4.800E+08      1.5       380.0 
HNOH+H=NH2+OH                  4.000E+13      0.0         0.0 
HNOH+O=HNO+OH                  7.000E+13      0.0         0.0 
    DUPLICATE
HNOH+O=HNO+OH                  3.300E+08      1.5      -360.0 
    DUPLICATE
HNOH+OH=HNO+H2O                2.400E+06      2.0     -1190.0
HNOH+HO2=HNO+H2O2              2.900E+04      2.69    -1600.0
HNOH+NH2=HNO+NH3               1.800E+06      1.94    -1150.0
HNOH+NO2=HONO+HNO              6.000E+11      0.0      2000.0
HNOH+O2=HNO+HO2                3.000E+12      0.0     25000.0
HNOH+HNO=NH2OH+NO              1.000E+12      0.0      3000.0 

!--------------------------------------------------------------------------------
!
! vibrational-translational relaxation
!
!--------------------------------------------------------------------------------

!N2(v1) + N2 => N2     + N2
!N2(v2) + N2 => N2(v1) + N2
!N2(v3) + N2 => N2(v2) + N2
!N2(v4) + N2 => N2(v3) + N2
!N2(v5) + N2 => N2(v4) + N2
!N2(v6) + N2 => N2(v5) + N2
!N2(v7) + N2 => N2(v6) + N2
!N2(v8) + N2 => N2(v7) + N2
!N2     + N2 => N2(v1) + N2
!N2(v1) + N2 => N2(v2) + N2
!N2(v2) + N2 => N2(v3) + N2
!N2(v3) + N2 => N2(v4) + N2
!N2(v4) + N2 => N2(v5) + N2
!N2(v5) + N2 => N2(v6) + N2
!N2(v6) + N2 => N2(v7) + N2
!N2(v7) + N2 => N2(v8) + N2
!
!N2(v1) + N => N2     + N
!N2(v2) + N => N2(v1) + N
!N2(v3) + N => N2(v2) + N
!N2(v4) + N => N2(v3) + N
!N2(v5) + N => N2(v4) + N
!N2(v6) + N => N2(v5) + N
!N2(v7) + N => N2(v6) + N
!N2(v8) + N => N2(v7) + N
!N2     + N => N2(v1) + N
!N2(v1) + N => N2(v2) + N
!N2(v2) + N => N2(v3) + N
!N2(v3) + N => N2(v4) + N
!N2(v4) + N => N2(v5) + N
!N2(v5) + N => N2(v6) + N
!N2(v6) + N => N2(v7) + N
!N2(v7) + N => N2(v8) + N
!
!N2(v1) + O  => N2     + O
!N2(v2) + O  => N2(v1) + O
!N2(v3) + O  => N2(v2) + O
!N2(v4) + O  => N2(v3) + O
!N2(v5) + O  => N2(v4) + O
!N2(v6) + O  => N2(v5) + O
!N2(v7) + O  => N2(v6) + O
!N2(v8) + O  => N2(v7) + O
!N2     + O  => N2(v1) + O
!N2(v1) + O  => N2(v2) + O
!N2(v2) + O  => N2(v3) + O
!N2(v3) + O  => N2(v4) + O
!N2(v4) + O  => N2(v5) + O
!N2(v5) + O  => N2(v6) + O
!N2(v6) + O  => N2(v7) + O
!N2(v7) + O  => N2(v8) + O
!
!O2(v1) + O2 => O2     + O2
!O2(v2) + O2 => O2(v1) + O2
!O2(v3) + O2 => O2(v2) + O2
!O2(v4) + O2 => O2(v3) + O2
!O2     + O2 => O2(v1) + O2
!O2(v1) + O2 => O2(v2) + O2
!O2(v2) + O2 => O2(v3) + O2
!O2(v3) + O2 => O2(v4) + O2
!
!O2(v1) + O  => O2     + O
!O2(v2) + O  => O2(v1) + O
!O2(v3) + O  => O2(v2) + O
!O2(v4) + O  => O2(v3) + O
!O2     + O  => O2(v1) + O
!O2(v1) + O  => O2(v2) + O
!O2(v2) + O  => O2(v3) + O
!O2(v3) + O  => O2(v4) + O

! === === === === === === === === === === === === === === ===
! [Capitelli2000, page 159]
!N2(A3) + N2(v6) => N2(B3) + N2                      1.807E+13      0.00     0.0
!N2(A3) + N2(v7) => N2(B3) + N2(v1)                  1.807E+13      0.00     0.0
!N2(A3) + N2(v8) => N2(B3) + N2(v2)                  1.807E+13      0.00     0.0
!N2(B3) + N2     => N2(A3) + N2(v6)                  1.807E+13      0.00     0.0
!N2(B3) + N2(v1) => N2(A3) + N2(v7)                  1.807E+13      0.00     0.0
!N2(B3) + N2(v2) => N2(A3) + N2(v8)                  1.807E+13      0.00     0.0
!N2(B3) + N2(v3) => N2(A3) + N2(v8)                  1.807E+13      0.00     0.0
!N2(B3) + N2(v4) => N2(A3) + N2(v8)                  1.807E+13      0.00     0.0
!N2(B3) + N2(v5) => N2(A3) + N2(v8)                  1.807E+13      0.00     0.0
!N2(B3) + N2(v6) => N2(A3) + N2(v8)                  1.807E+13      0.00     0.0
!N2(B3) + N2(v7) => N2(A3) + N2(v8)                  1.807E+13      0.00     0.0
!N2(B3) + N2(v8) => N2(A3) + N2(v8)                  1.807E+13      0.00     0.0
! === === === === === === === === === === === === === === ===

!--------------------------------------------------------------------------------
!
! electron-ion recombination [Capitelli2000, page 141]
!
!--------------------------------------------------------------------------------

 E + N2^+ => N  + N                                  5.013E+17     -0.39     0.0
 E + N2^+ => N  + N(2D)                              4.511E+17     -0.39     0.0
 E + N2^+ => N  + N(2P)                              5.013E+16     -0.39     0.0
 E + N3^+ => N2 + N                                  2.086E+18     -0.50     0.0
 E + N4^+ => N2 + N2                                 2.847E+19     -0.53     0.0

 E + O2^+ => O  + O                                  4.847E+18     -0.70     0.0
 E + O2^+ => O  + O(1D)                              3.525E+18     -0.70     0.0
 E + O2^+ => O  + O(1S)                              4.406E+17     -0.70     0.0
 E + O4^+ => O2 + O2                                 1.460E+19     -0.50     0.0

 E + NO^+ => O + N                                   6.450E+18     -0.85     0.0
 E + NO^+ => O + N(2D)                               2.580E+19     -0.85     0.0

!E + O2^+N2 => O2 + N2                               8.166E+42     -0.50     0.0

 E + N^+ + E => N + E                                3.562E+39     -4.50     0.0
 E + O^+ + E => O + E                                3.562E+39     -4.50     0.0

 E + N^+ + M => N + M                                1.131E+25     -1.50     0.0
 E + O^+ + M => O + M                                1.131E+25     -1.50     0.0

 ! [Carrasco2011]			
 E + NH^+  => N + H                                  4.175E+15	    -0.5	 0.0
 E + NH2^+ => NH + H	                             9.904E+15	    -0.5	 0.0
 E + NH2^+ => N + 2H	                             1.922E+16	    -0.5	 0.0
 E + NH3^+ => NH + 2H	                             1.505E+16	    -0.5	 0.0
 E + NH3^+ => NH2 + H	                             1.505E+16	    -0.5	 0.0
 E + N2H^+ => N2 + H	                             3.088E+16	   -0.72	 0.0
 E + NH4^+ => NH3 + H	                             5.302E+16	  -0.605	 0.0
 E + NH4^+ => NH2 + 2H	                             8.141E+15	  -0.605	 0.0

! [Allan2001]
 E + NH4^+ => H + H + NH2                            1.807E+17      0.00     0.0

!--------------------------------------------------------------------------------
!
! electron attachment
!
!--------------------------------------------------------------------------------

! E + O2  => O^- + O                                                 0.00     0.0
! E + NO  => O^- + N                                                 0.00     0.0
! E + O3  => O^-  + O2                                               0.00     0.0
! E + O3  => O2^- + O                                                0.00     0.0

! E + N2O => NO^- + N                                               0.00     0.0
! E + O2 + O2 => O2^- + O2                                          0.00     0.0

! [Capitelli2000, page 142]
 E + NO2     => O^- + NO                             6.022E+12      0.00     0.0
 E + O  + O2 => O^- + O2                             3.627E+16      0.00     0.0
 E + O  + O2 => O2^- + O                             3.627E+16      0.00     0.0

 E + O3  + M => O3^-  + M                            3.627E+16      0.00     0.0
 E + NO  + M => NO^-  + M                            2.901E+17      0.00     0.0
 E + N2O + M => N2O^- + M                            2.176E+15      0.00     0.0

! [Kossyi1992]
 E + O2 + N2 => O2^- + N2                            3.590E+21     -2.00   139.0

! E + NH3 => NH2 + H^-

!--------------------------------------------------------------------------------
!
! electron detachment [Capitelli2000, page 182]
!
!--------------------------------------------------------------------------------

 O^-   + O      => O2  + E                           8.431E+13      0.00     0.0
 O^-   + N      => NO  + E                           1.566E+14      0.00     0.0
 O^-   + NO     => NO2 + E                           1.566E+14      0.00     0.0
 O^-   + N2     => N2O + E                           3.011E+11      0.00     0.0
 O^-   + O2     => O3  + E                           3.011E+09      0.00     0.0
 O^-   + O2(a1) => O3  + E                           1.807E+14      0.00     0.0
 O^-   + O2(b1) => O   + O2 + E                      4.155E+14      0.00     0.0
 O^-   + N2(A3) => O   + N2 + E                      1.325E+15      0.00     0.0
 O^-   + N2(B3) => O   + N2 + E                      1.144E+15      0.00     0.0
 O^-   + O3     => O2  + O2 + E                      1.807E+14      0.00     0.0
 O2^-  + O      => O3  + E                           9.033E+13      0.00     0.0
 O2^-  + N      => NO2 + E                           3.011E+14      0.00     0.0
 O2^-  + O2     => O2  + O2 + E                      9.388E+12      0.50 -11101.1
 O2^-  + O2(a1) => O2  + O2 + E                      1.204E+14      0.00     0.0
 O2^-  + O2(b1) => O2  + O2 + E                      2.168E+14      0.00     0.0
 O2^-  + N2     => O2  + N2 + E                      6.606E+10      0.50 -9909.6
 O2^-  + N2(A3) => O2  + N2 + E                      1.265E+15      0.00     0.0
 O2^-  + N2(B3) => O2  + N2 + E                      1.506E+15      0.00     0.0
 O3^-  + O      => O2  + O2 + E                      1.807E+14      0.00     0.0
! O3^- + N2     => N2O + O2 + E

!----------------------------------------
!
! Detachment for O3^- NO^- N2O^- NO2^- NO3^- has to be verified
!
!----------------------------------------

 NO^- + N      => N2O + E                            3.011E+14      0.00     0.0
 O3^-   + N      => NO + O2 + E                      3.011E+14      0.00     0.0
 N2O^-   + N      => NO + N2 + E                     3.011E+14      0.00     0.0
 NO2^-   + N      => NO + NO + E                     3.011E+14      0.00     0.0
 NO3^-   + N      => NO + NO2 + E                    3.011E+14      0.00     0.0

 NO^- + O      => NO2 + E                            9.033E+13      0.00     0.0
 N2O^-   + O      => NO + NO  + E                    9.033E+13      0.00     0.0
 NO2^-   + O      => NO + O2  + E                    9.033E+13      0.00     0.0
 NO3^-   + O      => NO + O3  + E                    9.033E+13      0.00     0.0

 O3^- + N2(A3)  => O3 + N2 + E                       1.265E+15      0.00     0.0
 NO^- + N2(A3)  => NO + N2 + E                       1.265E+15      0.00     0.0
 N2O^- + N2(A3)  => N2O + N2 + E                     1.265E+15      0.00     0.0
 NO2^- + N2(A3)  => NO2 + N2 + E                     1.265E+15      0.00     0.0
 NO3^- + N2(A3)  => NO3 + N2 + E                     1.265E+15      0.00     0.0

 O3^- + N2(B3)  => O3 + N2 + E                       1.506E+15      0.00     0.0
 NO^- + N2(B3)  => NO + N2 + E                       1.506E+15      0.00     0.0
 N2O^- + N2(B3)  => N2O + N2 + E                     1.506E+15      0.00     0.0
 NO2^- + N2(B3)  => NO2 + N2 + E                     1.506E+15      0.00     0.0
 NO3^- + N2(B3)  => NO3 + N2 + E                     1.506E+15      0.00     0.0

!--------------------------------------------------------------------------------
!
! optical transitions and predissociation [Capitelli2000, page 157]
!
!--------------------------------------------------------------------------------

 N2(A3)  => N2                                       5.000E-01      0.00     0.0
 N2(B3)  => N2(A3)                                   1.340E+05      0.00     0.0
 N2(a`1) => N2                                       1.000E+02      0.00     0.0
 N2(C3)  => N2(B3)                                   2.450E+07      0.00     0.0

 O2(a1)    => O2                                     2.600E-04      0.00     0.0
 O2(b1)    => O2(a1)                                 1.500E-03      0.00     0.0
 O2(b1)    => O2                                     8.500E-02      0.00     0.0
 O2(4.5eV) => O2                                     1.100E+01      0.00     0.0

!--------------------------------------------------------------------------------
!
! quenching and excitation of N2 [Capitelli2000, page 159]
!
!--------------------------------------------------------------------------------

! [Capitelli2000] quenching of electronically excited N2 by O2
! N2(A3) + O2 => N2 + O + O(1D)                      1.265E+12       0.00     0.0
! N2(A3) + O2 => N2 + O2(a1)                         1.204E+11       0.00     0.0
! N2(A3) + O2 => N2 + O2(b1)                         1.204E+11       0.00     0.0
! N2(A3) + O2 => N2O + O                             1.204E+10       0.00     0.0
! N2(B3) + O2 => N2 + O + O                          1.807E+14       0.00     0.0
! N2(C3) + O2 => N2 + O + O(1S)                      1.807E+14       0.00     0.0
! N2(a`1) + O2 => N2 + O + O                         1.686E+13       0.00     0.0

! [Popov2011] quenching of electronically excited N2 by O2